CreateInstall -IN Inst.cmd -IN fork.cmd -IN Claude-Menu.ps1 -POST Inst.cmd -TO "C:\Program Files\WinClaudeForker" -MODPATH -OUT WinClaudeForker