cd..
CreateInstall -IN Inst.cmd -IN fork.cmd -IN sf.cmd -IN Claude-Menu.ps1 -POST Inst.cmd -TO "C:\Program Files\SessionForge" -MODPATH -OUT SessionForge